Version 4
SHEET 1 4164 4132
WIRE 784 -416 704 -416
WIRE 848 -416 784 -416
WIRE 704 -384 704 -416
WIRE 704 -288 704 -304
WIRE -1168 128 -1328 128
WIRE 752 144 544 144
WIRE -1328 176 -1328 128
WIRE -1168 192 -1168 128
WIRE 544 192 544 144
WIRE 752 208 752 144
WIRE -1328 288 -1328 256
WIRE 544 304 544 272
WIRE -1168 320 -1168 272
WIRE 752 352 752 288
WIRE 752 416 752 352
WIRE -1168 448 -1168 400
WIRE -1168 496 -1168 448
WIRE -944 592 -1040 592
WIRE -784 592 -864 592
WIRE -576 592 -784 592
WIRE -512 592 -576 592
WIRE -256 592 -512 592
WIRE 48 592 -256 592
WIRE 976 608 880 608
WIRE 1136 608 1056 608
WIRE 1344 608 1136 608
WIRE 1408 608 1344 608
WIRE 1664 608 1408 608
WIRE 1952 608 1664 608
WIRE -784 624 -784 592
WIRE 656 640 496 640
WIRE 1136 640 1136 608
WIRE -512 656 -512 592
WIRE 48 656 48 592
WIRE 1952 656 1952 608
WIRE 1408 672 1408 608
WIRE -784 768 -784 688
WIRE 752 768 752 720
WIRE 48 784 48 736
WIRE 1136 784 1136 704
WIRE -512 800 -512 720
WIRE 1952 800 1952 736
WIRE 1408 816 1408 736
WIRE -1168 832 -1168 784
WIRE 752 832 752 768
WIRE -784 880 -784 848
WIRE -1168 896 -1168 832
WIRE 1136 896 1136 864
WIRE 1664 896 1664 608
WIRE 752 944 752 912
WIRE -1168 1008 -1168 976
WIRE -256 1008 -256 592
WIRE -112 1008 -256 1008
WIRE 1664 1024 1664 976
WIRE 1728 1024 1664 1024
WIRE 1808 1024 1728 1024
WIRE -112 1040 -112 1008
WIRE 1808 1056 1808 1024
WIRE -256 1072 -256 1008
WIRE 1664 1088 1664 1024
WIRE -112 1152 -112 1120
WIRE 1808 1168 1808 1136
WIRE -416 1184 -544 1184
WIRE -256 1184 -256 1152
WIRE -256 1184 -416 1184
WIRE -1120 1200 -1120 784
WIRE -1072 1200 -1120 1200
WIRE -1024 1200 -1072 1200
WIRE 1424 1200 1376 1200
WIRE 1664 1200 1664 1168
WIRE 1664 1200 1424 1200
WIRE 496 1216 496 640
WIRE 848 1216 496 1216
WIRE 896 1216 848 1216
WIRE -256 1232 -256 1184
WIRE -112 1232 -112 1216
WIRE -112 1232 -256 1232
WIRE 1664 1248 1664 1200
WIRE 1808 1248 1808 1232
WIRE 1808 1248 1664 1248
WIRE -256 1264 -256 1232
WIRE 1664 1280 1664 1248
WIRE -256 1392 -256 1344
WIRE 1664 1408 1664 1360
WIRE -1216 1952 -1376 1952
WIRE -1376 2000 -1376 1952
WIRE -1216 2016 -1216 1952
WIRE -1376 2112 -1376 2080
WIRE -1216 2128 -1216 2096
WIRE -1216 2304 -1216 2208
WIRE -1216 2432 -1216 2304
WIRE -528 2480 -1120 2480
WIRE -368 2480 -448 2480
WIRE -160 2480 -368 2480
WIRE -96 2480 -160 2480
WIRE 160 2480 -96 2480
WIRE 464 2480 160 2480
WIRE -368 2512 -368 2480
WIRE -1056 2528 -1120 2528
WIRE -96 2544 -96 2480
WIRE 464 2544 464 2480
WIRE -368 2656 -368 2576
WIRE 464 2672 464 2624
WIRE -96 2688 -96 2608
WIRE -1216 2720 -1216 2592
WIRE -368 2768 -368 2736
WIRE -1216 2832 -1216 2720
WIRE 160 2896 160 2480
WIRE 304 2896 160 2896
WIRE 304 2928 304 2896
WIRE -1216 2944 -1216 2912
WIRE 160 2960 160 2896
WIRE 304 3040 304 3008
WIRE 0 3072 -128 3072
WIRE 160 3072 160 3040
WIRE 160 3072 0 3072
WIRE -1056 3088 -1056 2528
WIRE -944 3088 -1056 3088
WIRE -608 3088 -944 3088
WIRE 160 3120 160 3072
WIRE 304 3120 304 3104
WIRE 304 3120 160 3120
WIRE 160 3152 160 3120
WIRE 160 3280 160 3232
FLAG 704 -288 0
FLAG 784 -416 Rload
FLAG -576 592 out
FLAG -1168 1008 0
FLAG -1072 1200 Vc
FLAG -1328 288 0
FLAG -784 880 0
FLAG -1168 832 a
FLAG -1168 448 c
FLAG -512 800 0
FLAG -256 1392 0
FLAG 48 784 0
FLAG -416 1184 Vi
FLAG 1344 608 CM2_out
FLAG 752 944 0
FLAG 848 1216 CM2_Vc
FLAG 544 304 0
FLAG 1136 896 0
FLAG 752 768 CM2_p
FLAG 752 352 CM2_a
FLAG 1408 816 0
FLAG 1664 1408 0
FLAG 1728 1024 CM2_in
FLAG 1952 800 0
FLAG 1424 1200 CM2_Vi
FLAG -160 2480 PWM_BU_out
FLAG -1216 2944 0
FLAG -944 3088 PWM_BU_Vc
FLAG -1376 2112 0
FLAG -368 2768 0
FLAG -1216 2720 PWM_BU_a
FLAG -1216 2304 PWM_BU_c
FLAG -96 2688 0
FLAG 160 3280 0
FLAG 464 2672 0
FLAG 0 3072 PWM_BU_Vi
DATAFLAG 624 1216 ""
DATAFLAG 1792 608 ""
DATAFLAG -736 3088 ""
DATAFLAG 48 2480 ""
SYMBOL voltage 704 -400 R0
WINDOW 3 65 58 Left 2
WINDOW 123 0 0 Left 2
WINDOW 39 0 0 Left 2
SYMATTR Value PULSE({R_idle} {R_step} 0.2ms {loadRiseFall} {loadRiseFall} 1m 4m)
SYMATTR InstName V2
SYMBOL res -1184 880 R0
WINDOW 0 -62 50 Left 2
WINDOW 3 -62 87 Left 2
SYMATTR InstName R1
SYMATTR Value 1µ
SYMBOL ind -1184 304 R0
WINDOW 0 56 38 Left 2
WINDOW 3 54 68 Left 2
SYMATTR InstName L1
SYMATTR Value {L}
SYMBOL res -1184 176 R0
WINDOW 0 58 36 Left 2
WINDOW 3 56 61 Left 2
SYMATTR InstName R_L1
SYMATTR Value 1m
SYMBOL voltage -1328 160 R0
WINDOW 0 -122 57 Left 2
WINDOW 3 -176 -97 Left 2
WINDOW 123 0 0 Left 0
WINDOW 39 0 0 Left 0
SYMATTR InstName Vin_CM1
SYMATTR Value PULSE({Vin} {Vin*2} 1.4m 1u 1u 100u 4m)
SYMBOL cap -800 624 R0
SYMATTR InstName C1
SYMATTR Value {Cbulk}
SYMBOL res -800 752 R0
SYMATTR InstName R3
SYMATTR Value {Cesr}
SYMBOL res -960 608 R270
WINDOW 0 32 56 VTop 2
WINDOW 3 0 56 VBottom 2
SYMATTR InstName R7
SYMATTR Value 1µ
SYMBOL cap -528 656 R0
SYMATTR InstName C3
SYMATTR Value 1n
SYMBOL res -272 1056 R0
SYMATTR InstName R11
SYMATTR Value {Rdiv1}
SYMBOL res -272 1248 R0
SYMATTR InstName R12
SYMATTR Value {Rdiv2}
SYMBOL res -128 1024 R0
SYMATTR InstName R13
SYMATTR Value {Rspeed}
SYMBOL cap -128 1152 R0
WINDOW 0 44 17 Left 2
WINDOW 3 42 50 Left 2
SYMATTR InstName C5
SYMATTR Value {Cspeed}
SYMBOL res 32 640 R0
SYMATTR InstName R14
SYMATTR Value R = V(Rload)
SYMBOL TransconErrorAmp -640 1120 M0
WINDOW 0 343 -58 Left 2
WINDOW 39 -233 243 Left 2
SYMATTR InstName X5
SYMATTR SpiceLine C_comp = {TA_Ccomp}, R_comp = {TA_Rcomp}, Pos = 2.4, Neg = 1m, Gain = {TA_Gain}, Vref = {Vref}
SYMBOL IdealBoost -1136 688 R270
WINDOW 39 223 -8 VRight 2
WINDOW 0 236 11 VTop 2
SYMATTR SpiceLine Fs = {Fs}, Ri = {Rsense}, SlopeAmp = {SlopeAmp}, D_min = {D_lo}, D_max = {D_hi}
SYMATTR InstName X3
SYMBOL res 736 816 R0
WINDOW 0 -62 50 Left 2
WINDOW 3 -62 87 Left 2
SYMATTR InstName R15
SYMATTR Value 1µ
SYMBOL res 736 192 R0
WINDOW 0 58 36 Left 2
WINDOW 3 56 61 Left 2
SYMATTR InstName R_L3
SYMATTR Value 1m
SYMBOL voltage 544 176 R0
WINDOW 0 -158 51 Left 2
WINDOW 3 -165 -84 Left 2
SYMATTR InstName Vin_CM2
SYMATTR Value PULSE({Vin} {Vin*2} 1.4m 1u 1u 100u 4m)
SYMBOL cap 1120 640 R0
SYMATTR InstName C7
SYMATTR Value {Cbulk}
SYMBOL res 1120 768 R0
SYMATTR InstName R16
SYMATTR Value {Cesr}
SYMBOL res 960 624 R270
WINDOW 0 32 56 VTop 2
WINDOW 3 0 56 VBottom 2
SYMATTR InstName R17
SYMATTR Value 1µ
SYMBOL cap 1392 672 R0
SYMATTR InstName C8
SYMATTR Value 1n
SYMBOL res 1648 1072 R0
SYMATTR InstName R18
SYMATTR Value {Rdiv1}
SYMBOL res 1648 1264 R0
SYMATTR InstName R19
SYMATTR Value {Rdiv2}
SYMBOL res 1792 1040 R0
SYMATTR InstName R20
SYMATTR Value {Rspeed}
SYMBOL cap 1792 1168 R0
WINDOW 0 44 17 Left 2
WINDOW 3 42 50 Left 2
SYMATTR InstName C9
SYMATTR Value {Cspeed}
SYMBOL voltage 1664 992 R180
WINDOW 0 -71 93 Left 2
WINDOW 3 -66 32 Left 2
WINDOW 123 -114 59 Left 2
WINDOW 39 0 0 Left 2
SYMATTR InstName V1
SYMATTR Value 0
SYMATTR Value2 AC 1m
SYMBOL res 1936 640 R0
SYMATTR InstName R21
SYMATTR Value R = V(Rload)
SYMBOL TransconErrorAmp 1280 1136 M0
WINDOW 0 345 -56 Left 2
WINDOW 39 -233 243 Left 2
SYMATTR InstName X6
SYMATTR SpiceLine C_comp = {TA_Ccomp}, R_comp = {TA_Rcomp}, Pos = 2.4, Neg = 1m, Gain = {TA_Gain}, Vref = {Vref}
SYMBOL Boost_CM3 688 496 R0
WINDOW 0 111 -113 Bottom 2
WINDOW 39 82 -101 Left 2
SYMATTR InstName X7
SYMATTR SpiceLine Fs = {Fs}, Ri = {Rsense}, L = {L}, SlopeAmp = {SlopeAmp}, D_min = {D_lo}, D_max = {D_hi}
SYMBOL res -1232 2816 R0
WINDOW 0 -62 50 Left 2
WINDOW 3 -62 87 Left 2
SYMATTR InstName R2
SYMATTR Value 1µ
SYMBOL ind -1232 2112 R0
WINDOW 0 56 38 Left 2
WINDOW 3 54 68 Left 2
SYMATTR InstName L2
SYMATTR Value {L}
SYMBOL res -1232 2000 R0
WINDOW 0 58 36 Left 2
WINDOW 3 56 61 Left 2
SYMATTR InstName R_L2
SYMATTR Value 1m
SYMBOL voltage -1376 1984 R0
WINDOW 0 -122 57 Left 2
WINDOW 3 -133 -69 Left 2
SYMATTR InstName Vin_CM3
SYMATTR Value PULSE({Vin} {Vin*2} 1.4m 1u 1u 100u 4m)
SYMBOL cap -384 2512 R0
SYMATTR InstName C2
SYMATTR Value {Cbulk}
SYMBOL res -384 2640 R0
SYMATTR InstName R4
SYMATTR Value {Cesr}
SYMBOL res -544 2496 R270
WINDOW 0 32 56 VTop 2
WINDOW 3 0 56 VBottom 2
SYMATTR InstName R5
SYMATTR Value 1µ
SYMBOL cap -112 2544 R0
SYMATTR InstName C4
SYMATTR Value 1n
SYMBOL res 144 2944 R0
SYMATTR InstName R6
SYMATTR Value {Rdiv1}
SYMBOL res 144 3136 R0
SYMATTR InstName R8
SYMATTR Value {Rdiv2}
SYMBOL res 288 2912 R0
SYMATTR InstName R9
SYMATTR Value {Rspeed}
SYMBOL cap 288 3040 R0
WINDOW 0 44 17 Left 2
WINDOW 3 42 50 Left 2
SYMATTR InstName C6
SYMATTR Value {Cspeed}
SYMBOL res 448 2528 R0
SYMATTR InstName R10
SYMATTR Value R = V(Rload)
SYMBOL TransconErrorAmp -224 3008 M0
WINDOW 0 343 -58 Left 2
WINDOW 39 -233 243 Left 2
SYMATTR InstName X1
SYMATTR SpiceLine C_comp = {TA_Ccomp}, R_comp = {TA_Rcomp}, Pos = 2.4, Neg = 1m, Gain = {TA_Gain}, Vref = {Vref}
SYMBOL PWM_BU -1184 2544 R270
WINDOW 39 157 583 VTop 2
SYMATTR InstName X2
SYMATTR SpiceLine f = {Fs}, ks = {Rsense}, L = {L}, vr = {SlopeAmp}, D_min = {D_lo}, D_max = {D_hi}
TEXT 664 -112 Left 2 ;.ac oct 100 10 10meg
TEXT 120 -440 Left 3 !.param L = 3.6u
TEXT -512 -592 Left 3 !.param Fs = 1240k
TEXT -512 -552 Left 3 !.param D_lo = {80n * Fs}
TEXT -512 -512 Left 3 !.param D_hi = 0.9
TEXT -512 -432 Left 3 !.param SlopeAmp = 0.8
TEXT -704 -552 Right 3 ;Duty Cycle Limits
TEXT -512 -664 Left 4 ;IC Parameters
TEXT 120 -584 Left 3 !.param Vout = 13.6
TEXT 120 -360 Left 3 !.param Cbulk = {4.7u *3}
TEXT 120 -328 Left 3 !.param Cesr = 1m
TEXT 120 -616 Left 3 !.param Vin = 5
TEXT 120 -408 Left 3 !.param Lesr = 10m
TEXT -512 -472 Left 3 !.param Rsense = 250m
TEXT 120 -200 Left 3 !.param Rdiv2 = 10k
TEXT 120 -160 Left 2 !.param Rdiv1 = Rdiv2 * (Vout - Vref) / Vref
TEXT -512 -216 Left 3 !.param Vref = 1.24
TEXT -512 -368 Left 3 ;TA Parameters
TEXT -512 -120 Left 3 !.param TA_Rcomp = 56k
TEXT -512 -160 Left 3 !.param TA_Ccomp = 330p
TEXT -512 -80 Left 3 !.param TA_Ccomp2 = 1p
TEXT -512 -328 Left 3 !.param TA_Gain = 135u
TEXT -512 -296 Left 3 !.param TA_compMax = 2.4
TEXT -512 -264 Left 3 !.param TA_compMin = 1m
TEXT 664 -584 Left 3 !.param I_step = 30mA
TEXT 664 -624 Left 3 !.param I_idle = 500mA
TEXT 664 -528 Left 2 !.param R_idle = Vout / I_idle
TEXT 664 -216 Left 2 !.param loadRiseFall = 1u
TEXT 120 -280 Left 3 !.param Rspeed = 10meg
TEXT 120 -248 Left 3 !.param Cspeed = 1p
TEXT 664 -168 Left 2 !.param Vc = 0.935
TEXT 120 -664 Left 4 ;Circuit Parameters
TEXT 664 -496 Left 2 !.param R_step = Vout / I_step
TEXT -592 536 Left 2 !.ic V(out) = {Vout}
TEXT -480 1136 Left 2 !.ic V(Vi) = {Vref}
TEXT 664 -664 Left 4 ;Load Parameters
TEXT -1208 1224 Left 2 !.ic V(Vc) = Vc
TEXT 1792 -640 Left 2 ;.step param Vout 8 12 4
TEXT 1792 -552 Left 2 ;.step param I_idle 30m 500m 470m
TEXT 2136 1640 Left 2 ;Drawn : Mark Dimattina
TEXT 2136 1592 Left 4 ;Title : Boost_RT9297
TEXT 2136 1704 Left 2 ;Rev: 0.01
TEXT 2136 1672 Left 2 ;Date: 02/09/2017
TEXT 2136 1736 Left 2 ;M.J.Dimattina@ieee.org
TEXT -1016 -432 Left 2 ;.step param SlopeAmp 0.4 2 0.4
TEXT 672 -72 Left 2 !.tran 0 2m 0
RECTANGLE Normal 2752 1840 -1696 -800 2
