Version 4
SHEET 1 3748 852
WIRE -1872 -2448 -1952 -2448
WIRE -1840 -2448 -1872 -2448
WIRE -1792 -2448 -1840 -2448
WIRE -1616 -2448 -1712 -2448
WIRE -1552 -2448 -1616 -2448
WIRE -1840 -2384 -1840 -2448
WIRE -1888 -2224 -1952 -2224
WIRE -1840 -2224 -1840 -2304
WIRE -1840 -2224 -1888 -2224
WIRE -1840 -2000 -1952 -2000
WIRE -1840 -1936 -2112 -1936
WIRE -1424 -1936 -1504 -1936
WIRE -1344 -1936 -1424 -1936
WIRE -2112 -1872 -2112 -1936
WIRE -1840 -1872 -1904 -1872
WIRE -1424 -1872 -1504 -1872
WIRE -1344 -1872 -1424 -1872
WIRE -1904 -1792 -1904 -1872
WIRE -2112 -1760 -2112 -1792
WIRE -1904 -1680 -1904 -1712
FLAG -1952 -2448 A
IOPIN -1952 -2448 BiDir
FLAG -1552 -2448 C
IOPIN -1552 -2448 BiDir
FLAG -1952 -2224 P
IOPIN -1952 -2224 BiDir
FLAG -1616 -2448 c
FLAG -1872 -2448 a
FLAG -1952 -2000 Vc
IOPIN -1952 -2000 In
FLAG -2112 -1760 0
FLAG -1904 -1680 0
FLAG -1424 -1936 I_mag
FLAG -1424 -1872 I_demag
FLAG -1888 -2224 p
SYMBOL bi -1840 -2384 R0
WINDOW 0 -179 45 Left 2
WINDOW 3 -183 77 Left 2
SYMATTR InstName Bin
SYMATTR Value I=  V(I_mag)
SYMBOL bi -1792 -2448 R270
WINDOW 0 63 39 VTop 2
WINDOW 3 61 101 VBottom 2
SYMATTR InstName Bout
SYMATTR Value I= V(I_demag)
SYMBOL PWM_CM3 -1680 -1936 R0
WINDOW 0 -129 -117 Bottom 2
WINDOW 39 -150 -109 Left 2
SYMATTR InstName X1
SYMATTR SpiceLine sync = {sync}, L = {L}, Fs = {Fs}, Ri = {Ri} , SlopeAmp = {SlopeAmp}, D_min = {D_min}, D_max = {D_max}
SYMBOL bv -2112 -1888 R0
SYMATTR InstName B1
SYMATTR Value V= V(a, p)
SYMBOL bv -1904 -1808 R0
SYMATTR InstName B2
SYMATTR Value V= V(c, a)
TEXT -632 -2568 Left 2 !.param L = 10u
TEXT -632 -2600 Left 2 !.param Fs = 200k
TEXT -632 -2472 Left 2 !.param D_min = 0.05
TEXT -632 -2440 Left 2 !.param D_max = 0.90
TEXT -632 -2504 Left 2 !.param SlopeAmp =0.2
TEXT -632 -2536 Left 2 !.param Ri = 0.25
TEXT -632 -2632 Left 2 !.param sync = 0
TEXT -656 -1800 Left 2 ;Drawn : Mark Dimattina
TEXT -664 -1888 Left 4 ;Title : Boost CM3
TEXT -656 -1736 Left 2 ;Rev: 0.01
TEXT -656 -1768 Left 2 ;Date: 16/05/2024
TEXT -656 -1704 Left 2 ;M.J.Dimattina@ieee.org
TEXT -1856 -2616 Left 6 ;Boost
RECTANGLE Normal -224 -1568 -2304 -2736 2
