Version 4
SHEET 1 6372 4420
WIRE 3280 992 3216 992
WIRE 3344 992 3280 992
WIRE 3216 1024 3216 992
WIRE 3216 1120 3216 1104
WIRE 1024 1408 880 1408
WIRE 1200 1408 1024 1408
WIRE 1744 1408 1488 1408
WIRE 1952 1408 1824 1408
WIRE 2352 1408 2032 1408
WIRE 2432 1408 2352 1408
WIRE 2544 1408 2432 1408
WIRE 2688 1408 2544 1408
WIRE 2784 1408 2688 1408
WIRE 2816 1408 2784 1408
WIRE 2432 1440 2432 1408
WIRE 1200 1456 1088 1456
WIRE 2544 1472 2544 1408
WIRE 880 1488 880 1408
WIRE 2784 1488 2784 1408
WIRE 2432 1552 2432 1504
WIRE 1392 1568 1392 1536
WIRE 2544 1600 2544 1552
WIRE 880 1664 880 1568
WIRE 1392 1664 1392 1648
WIRE 2352 1680 2352 1408
WIRE 1872 1888 1712 1888
WIRE 2352 1888 2352 1760
WIRE 2352 1888 1872 1888
WIRE 2544 1888 2544 1664
WIRE 2784 1888 2784 1568
WIRE 2784 1888 2544 1888
WIRE 1088 1904 1088 1456
WIRE 1136 1904 1088 1904
WIRE 1232 1904 1136 1904
WIRE 2544 1920 2544 1888
WIRE 2352 1952 2352 1888
WIRE 2352 2176 2352 2032
WIRE 1056 2400 896 2400
WIRE 1216 2400 1056 2400
WIRE 1744 2400 1600 2400
WIRE 2080 2400 1744 2400
WIRE 2352 2400 2160 2400
WIRE 2448 2400 2352 2400
WIRE 2544 2400 2448 2400
WIRE 2688 2400 2544 2400
WIRE 2784 2400 2688 2400
WIRE 2816 2400 2784 2400
WIRE 2448 2432 2448 2400
WIRE 1216 2448 1072 2448
WIRE 2544 2464 2544 2400
WIRE 896 2480 896 2400
WIRE 2352 2480 2352 2400
WIRE 2784 2480 2784 2400
WIRE 2448 2544 2448 2496
WIRE 1360 2560 1360 2528
WIRE 2544 2592 2544 2544
WIRE 2288 2640 2192 2640
WIRE 2352 2640 2352 2560
WIRE 2352 2640 2288 2640
WIRE 896 2656 896 2560
WIRE 1072 2656 1072 2448
WIRE 1296 2656 1072 2656
WIRE 1360 2656 1360 2640
WIRE 2352 2672 2352 2640
WIRE 2544 2880 2544 2656
WIRE 2784 2880 2784 2560
WIRE 2784 2880 2544 2880
WIRE 2064 2912 1680 2912
WIRE 2352 2912 2352 2752
WIRE 2352 2912 2064 2912
WIRE 2544 2912 2544 2880
WIRE 1072 2928 1072 2656
WIRE 1136 2928 1072 2928
WIRE 1200 2928 1136 2928
WIRE 2352 2944 2352 2912
WIRE 2352 3168 2352 3024
FLAG 1024 1408 a
FLAG 2544 1920 0
FLAG 2688 1408 out
FLAG 2352 2176 0
FLAG 880 1664 0
FLAG 1136 1904 Vc
FLAG 1872 1888 Vi
FLAG 2432 1552 0
FLAG 3216 1120 0
FLAG 3280 992 Rload
FLAG 1056 2400 CM3-a
FLAG 2544 2912 0
FLAG 2688 2400 CM3-out
FLAG 2352 3168 0
FLAG 896 2656 0
FLAG 1360 2656 0
FLAG 1136 2928 CM3-Vc
FLAG 2064 2912 CM3-Vi
FLAG 2288 2640 CM3-in
FLAG 2448 2544 0
FLAG 1392 1664 0
FLAG 1744 2400 CM3-c
DATAFLAG 1216 2656 ""
SYMBOL ind 1728 1424 R270
WINDOW 0 32 56 VTop 2
WINDOW 3 5 56 VBottom 2
SYMATTR InstName L1
SYMATTR Value {L}
SYMBOL res 2048 1392 R90
WINDOW 0 0 56 VBottom 2
WINDOW 3 32 56 VTop 2
SYMATTR InstName R7
SYMATTR Value 20m
SYMBOL cap 2528 1600 R0
SYMATTR InstName Cout
SYMATTR Value 220µ
SYMBOL res 2768 1472 R0
SYMATTR InstName R11
SYMATTR Value R = V(Rload)
SYMBOL res 2336 1664 R0
SYMATTR InstName R12
SYMATTR Value {Rdiv1}
SYMBOL res 2336 1936 R0
SYMATTR InstName R13
SYMATTR Value {Rdiv2}
SYMBOL voltage 880 1472 R0
SYMATTR InstName V3
SYMATTR Value {Vin}
SYMBOL res 2528 1456 R0
SYMATTR InstName R15
SYMATTR Value 100m
SYMBOL TransconErrorAmp 1616 1824 M0
WINDOW 0 380 -53 Right 2
WINDOW 39 711 228 Right 2
SYMATTR InstName X3
SYMATTR SpiceLine C_comp = {C_comp}, R_comp = {R_comp}, Pos = 3, Neg = 0, Gain = {TA_Gain}, Vref = {Vref}
SYMBOL cap 2416 1440 R0
SYMATTR InstName C1
SYMATTR Value 100n
SYMBOL voltage 3216 1008 R0
WINDOW 123 0 0 Left 2
WINDOW 39 0 0 Left 2
WINDOW 0 -72 51 Left 2
WINDOW 3 44 51 Left 2
SYMATTR InstName V1
SYMATTR Value PULSE({R_idle} {R_step} 2m 1u 1u 3m 10m)
SYMBOL res 2176 2384 R90
WINDOW 0 0 56 VBottom 2
WINDOW 3 32 56 VTop 2
SYMATTR InstName R1
SYMATTR Value 20m
SYMBOL cap 2528 2592 R0
SYMATTR InstName Cout2
SYMATTR Value 220µ
SYMBOL res 2768 2464 R0
SYMATTR InstName R6
SYMATTR Value R = V(Rload)
SYMBOL res 2336 2656 R0
SYMATTR InstName R10
SYMATTR Value {Rdiv1}
SYMBOL res 2336 2928 R0
SYMATTR InstName R14
SYMATTR Value {Rdiv2}
SYMBOL voltage 896 2464 R0
SYMATTR InstName V4
SYMATTR Value {Vin}
SYMBOL res 2528 2448 R0
SYMATTR InstName R16
SYMATTR Value 100m
SYMBOL res 1344 2544 R0
SYMATTR InstName R17
SYMATTR Value 1µ
SYMBOL TransconErrorAmp 1584 2848 M0
WINDOW 0 380 -53 Right 2
WINDOW 39 695 220 Right 2
SYMATTR InstName X5
SYMATTR SpiceLine C_comp = {C_comp}, R_comp = {R_comp}, Pos = 3, Neg = 0, Gain = {TA_Gain}, Vref = {Vref}
SYMBOL voltage 2352 2576 R180
WINDOW 0 24 96 Left 2
WINDOW 3 24 16 Left 2
WINDOW 123 58 44 Left 2
WINDOW 39 0 0 Left 2
SYMATTR InstName V5
SYMATTR Value ""
SYMATTR Value2 AC 1 0
SYMBOL cap 2432 2432 R0
SYMATTR InstName C3
SYMATTR Value 100n
SYMBOL res 1376 1552 R0
SYMATTR InstName R18
SYMATTR Value 1µ
SYMBOL IdealBuck 1296 1440 R0
WINDOW 0 -78 -114 Bottom 2
WINDOW 39 -94 -95 Left 2
SYMATTR InstName X1
SYMATTR SpiceLine L = {L}, Fs = {Fs}, Ri = {Ri} , SlopeAmp = {rAmp}, D_min = {clampL}, D_max = {clampH}
SYMBOL Buck_CM3 1296 2432 R0
WINDOW 0 -55 -127 Bottom 2
WINDOW 39 -73 -113 Left 2
SYMATTR InstName X4
SYMATTR SpiceLine sync = 0, L = {L}, Fs = {Fs}, Ri = {Ri} , SlopeAmp = {Se / Fs}, D_min = {clampL}, D_max = {clampH}
TEXT 1208 1104 Left 2 !.param clampL = 0.1
TEXT 1208 1128 Left 2 !.param clampH = 0.99
TEXT 3208 864 Left 2 ;.ac dec 500 10 1meg
TEXT 1208 896 Left 2 !.param L = 37.5u
TEXT 1208 928 Left 2 !.param Fs = 50k
TEXT 1208 960 Left 2 !.param Ri = 0.33
TEXT 1208 1056 Left 2 !.param Se = {rAmp * Fs}
TEXT 1520 1016 Left 2 ;Compensation Ramp  - V/s
TEXT 1520 960 Left 2 ;R sense  - Ohms
TEXT 1520 928 Left 2 ;Switching Freq - Hz
TEXT 1520 896 Left 2 ;Inductance - H
TEXT 1520 1104 Left 2 ;Duty Cycle Limits
TEXT 1208 840 Left 4 ;PWM-CM Parameters
TEXT 1944 896 Left 2 !.param Vref = 2.5
TEXT 1944 928 Left 2 !.param TA_Gain = 135u
TEXT 1944 960 Left 2 !.param C_comp = 4n
TEXT 1944 992 Left 2 !.param R_comp = 5k
TEXT 1856 1840 Left 2 !.ic V(Vi) = {Vref}
TEXT 2608 1360 Left 2 !.ic V(out) = {Vout}
TEXT 1000 1928 Left 2 !.ic V(Vc) = 1.248
TEXT 2552 952 Left 2 !.param I_idle = {Vout / 3}
TEXT 2552 976 Left 2 !.param I_step = {Vout / 30}
TEXT 2552 920 Left 2 !.param Vout = 5
TEXT 2552 1088 Left 2 !.param R_idle = { Vout / I_idle}
TEXT 2552 1112 Left 2 !.param R_step = { Vout / I_step }
TEXT 2552 896 Left 2 !.param Vin = 11
TEXT 2552 1016 Left 2 !.param Rdiv2 = 10k
TEXT 2552 1040 Left 2 !.param Rdiv1 = Rdiv2 * (Vout - Vref) / Vref
TEXT 1208 1016 Left 2 !.param rAmp = 1m
TEXT 1952 840 Left 4 ;Error Amp Parameters
TEXT 2544 848 Left 4 ;Circuit Parameters
TEXT 3056 3064 Left 2 ;Drawn : Mark Dimattina
TEXT 3056 3016 Left 4 ;Title : Buck_Cct1
TEXT 3056 3128 Left 2 ;Rev: 0.02
TEXT 3056 3096 Left 2 ;Date: 25/05/2024
TEXT 3056 3160 Left 2 ;M.J.Dimattina@ieee.org
TEXT 1744 1488 Left 2 !.ic I(L1) = I_idle
TEXT 3208 832 Left 2 ;.step param Vout 5 6 1
TEXT 3192 696 Left 2 ;.step param relativeDelay 0.1 1.1 0.2
TEXT 1208 712 Left 2 ;.param L = 37.5u
TEXT 3208 920 Left 2 !.tran 0 10m 0
RECTANGLE Normal 3824 3248 784 784 2
