Version 4
SHEET 1 3748 852
WIRE -1872 -2512 -1952 -2512
WIRE -1808 -2512 -1872 -2512
WIRE -1680 -2512 -1728 -2512
WIRE -1616 -2512 -1680 -2512
WIRE -1552 -2512 -1616 -2512
WIRE -1680 -2448 -1680 -2512
WIRE -1680 -2336 -1680 -2368
WIRE -1664 -2336 -1680 -2336
WIRE -1632 -2336 -1664 -2336
WIRE -1680 -2288 -1680 -2336
WIRE -1744 -2112 -1952 -2112
WIRE -1872 -2048 -2080 -2048
WIRE -1744 -2048 -1872 -2048
WIRE -1344 -2048 -1408 -2048
WIRE -1248 -2048 -1344 -2048
WIRE -2080 -2032 -2080 -2048
WIRE -1824 -1984 -1888 -1984
WIRE -1744 -1984 -1824 -1984
WIRE -1344 -1984 -1408 -1984
WIRE -1248 -1984 -1344 -1984
WIRE -1888 -1952 -1888 -1984
WIRE -2080 -1920 -2080 -1952
WIRE -1888 -1840 -1888 -1872
FLAG -1952 -2512 A
IOPIN -1952 -2512 BiDir
FLAG -1664 -2336 p
FLAG -1552 -2512 C
IOPIN -1552 -2512 BiDir
FLAG -1680 -2288 P
IOPIN -1680 -2288 BiDir
FLAG -1616 -2512 c
FLAG -1872 -2512 a
FLAG -1952 -2112 Vc
IOPIN -1952 -2112 In
FLAG -2080 -1920 0
FLAG -1888 -1840 0
FLAG -1344 -2048 I_mag
FLAG -1344 -1984 I_demag
FLAG -1872 -2048 V_mag
FLAG -1824 -1984 V_demag
SYMBOL bi -1808 -2512 R270
WINDOW 0 32 40 VTop 2
WINDOW 3 -32 40 VBottom 2
SYMATTR InstName Bin
SYMATTR Value I=  V(I_mag)
SYMBOL bi -1680 -2368 R180
WINDOW 0 -120 51 Left 2
WINDOW 3 -247 23 Left 2
SYMATTR InstName Bout
SYMATTR Value I=  V(I_demag)
SYMBOL PWM_CM3 -1584 -2048 R0
WINDOW 0 -136 -124 Bottom 2
WINDOW 39 -146 -110 Left 2
SYMATTR InstName X1
SYMATTR SpiceLine sync = {sync}, L = {L}, Fs = {Fs}, Ri = {Ri} , SlopeAmp = {SlopeAmp}, D_min = {D_min}, D_max = {D_max}
SYMBOL bv -2080 -2048 R0
SYMATTR InstName B1
SYMATTR Value V= V(a, c)
SYMBOL bv -1888 -1968 R0
SYMATTR InstName B2
SYMATTR Value V= V(c, p)
TEXT -1184 -2544 Left 2 !.param L = 10u
TEXT -1184 -2576 Left 2 !.param Fs = 200k
TEXT -1184 -2448 Left 2 !.param D_min = 0.05
TEXT -1184 -2416 Left 2 !.param D_max = 0.90
TEXT -1184 -2480 Left 2 !.param SlopeAmp =0.2
TEXT -1184 -2512 Left 2 !.param Ri = 0.25
TEXT -1184 -2608 Left 2 !.param sync = 0
TEXT -720 -1928 Left 2 ;Drawn : Mark Dimattina
TEXT -728 -2016 Left 4 ;Title : Buck-CM3
TEXT -720 -1864 Left 2 ;Rev: 0.01
TEXT -720 -1896 Left 2 ;Date: 22/05/2024
TEXT -720 -1832 Left 2 ;M.J.Dimattina@ieee.org
TEXT -1856 -2616 Left 6 ;Buck
RECTANGLE Normal -224 -1728 -2240 -2720 2
